[root]
type=Root
children=system
eventq_index=0
full_system=false
sim_quantum=0
time_sync_enable=false
time_sync_period=100000000000
time_sync_spin_threshold=100000000

[system]
type=System
children=clk_domain cpu cpu_clk_domain cpu_voltage_domain l2 mem_ctrls membus tol2bus voltage_domain
boot_osflags=a
cache_line_size=64
clk_domain=system.clk_domain
eventq_index=0
init_param=0
kernel=
load_addr_mask=1099511627775
load_offset=0
mem_mode=atomic
mem_ranges=0:536870911
memories=system.mem_ctrls
num_work_ids=16
readfile=
symbolfile=
work_begin_ckpt_count=0
work_begin_cpu_id_exit=-1
work_begin_exit_count=0
work_cpus_ckpt_count=0
work_end_ckpt_count=0
work_end_exit_count=0
work_item_id=-1
system_port=system.membus.slave[0]

[system.clk_domain]
type=SrcClockDomain
clock=1000
eventq_index=0
voltage_domain=system.voltage_domain

[system.cpu]
type=AtomicSimpleCPU
children=apic_clk_domain dcache dtb dtb_walker_cache icache interrupts isa itb itb_walker_cache tracer workload
branchPred=Null
checker=Null
clk_domain=system.cpu_clk_domain
cpu_id=0
do_checkpoint_insts=true
do_quiesce=true
do_statistics_insts=true
dtb=system.cpu.dtb
eventq_index=0
fastmem=false
function_trace=false
function_trace_start=0
interrupts=system.cpu.interrupts
isa=system.cpu.isa
itb=system.cpu.itb
max_insts_all_threads=0
max_insts_any_thread=0
max_loads_all_threads=0
max_loads_any_thread=0
numThreads=1
profile=0
progress_interval=0
simpoint_interval=100000000
simpoint_profile=false
simpoint_profile_file=simpoint.bb.gz
simpoint_start_insts=
simulate_data_stalls=false
simulate_inst_stalls=false
socket_id=0
switched_out=false
system=system
tracer=system.cpu.tracer
width=1
workload=system.cpu.workload
dcache_port=system.cpu.dcache.cpu_side
icache_port=system.cpu.icache.cpu_side

[system.cpu.apic_clk_domain]
type=DerivedClockDomain
clk_divider=16
clk_domain=system.cpu_clk_domain
eventq_index=0

[system.cpu.dcache]
type=BaseCache
children=tags
addr_ranges=0:18446744073709551615
assoc=2
clk_domain=system.cpu_clk_domain
eventq_index=0
forward_snoops=true
hit_latency=2
is_top_level=true
max_miss_count=0
mshrs=4
prefetch_on_access=false
prefetcher=Null
response_latency=2
sequential_access=false
size=65536
system=system
tags=system.cpu.dcache.tags
tgts_per_mshr=20
two_queue=false
write_buffers=8
cpu_side=system.cpu.dcache_port
mem_side=system.tol2bus.slave[1]

[system.cpu.dcache.tags]
type=LRU
assoc=2
block_size=64
clk_domain=system.cpu_clk_domain
eventq_index=0
hit_latency=2
sequential_access=false
size=65536

[system.cpu.dtb]
type=X86TLB
children=walker
eventq_index=0
size=64
walker=system.cpu.dtb.walker

[system.cpu.dtb.walker]
type=X86PagetableWalker
clk_domain=system.cpu_clk_domain
eventq_index=0
num_squash_per_cycle=4
system=system
port=system.cpu.dtb_walker_cache.cpu_side

[system.cpu.dtb_walker_cache]
type=BaseCache
children=tags
addr_ranges=0:18446744073709551615
assoc=2
clk_domain=system.cpu_clk_domain
eventq_index=0
forward_snoops=true
hit_latency=2
is_top_level=true
max_miss_count=0
mshrs=10
prefetch_on_access=false
prefetcher=Null
response_latency=2
sequential_access=false
size=1024
system=system
tags=system.cpu.dtb_walker_cache.tags
tgts_per_mshr=12
two_queue=false
write_buffers=8
cpu_side=system.cpu.dtb.walker.port
mem_side=system.tol2bus.slave[3]

[system.cpu.dtb_walker_cache.tags]
type=LRU
assoc=2
block_size=64
clk_domain=system.cpu_clk_domain
eventq_index=0
hit_latency=2
sequential_access=false
size=1024

[system.cpu.icache]
type=BaseCache
children=tags
addr_ranges=0:18446744073709551615
assoc=2
clk_domain=system.cpu_clk_domain
eventq_index=0
forward_snoops=true
hit_latency=2
is_top_level=true
max_miss_count=0
mshrs=4
prefetch_on_access=false
prefetcher=Null
response_latency=2
sequential_access=false
size=32768
system=system
tags=system.cpu.icache.tags
tgts_per_mshr=20
two_queue=false
write_buffers=8
cpu_side=system.cpu.icache_port
mem_side=system.tol2bus.slave[0]

[system.cpu.icache.tags]
type=LRU
assoc=2
block_size=64
clk_domain=system.cpu_clk_domain
eventq_index=0
hit_latency=2
sequential_access=false
size=32768

[system.cpu.interrupts]
type=X86LocalApic
clk_domain=system.cpu.apic_clk_domain
eventq_index=0
int_latency=1000
pio_addr=2305843009213693952
pio_latency=100000
system=system
int_master=system.membus.slave[2]
int_slave=system.membus.master[1]
pio=system.membus.master[0]

[system.cpu.isa]
type=X86ISA
eventq_index=0

[system.cpu.itb]
type=X86TLB
children=walker
eventq_index=0
size=64
walker=system.cpu.itb.walker

[system.cpu.itb.walker]
type=X86PagetableWalker
clk_domain=system.cpu_clk_domain
eventq_index=0
num_squash_per_cycle=4
system=system
port=system.cpu.itb_walker_cache.cpu_side

[system.cpu.itb_walker_cache]
type=BaseCache
children=tags
addr_ranges=0:18446744073709551615
assoc=2
clk_domain=system.cpu_clk_domain
eventq_index=0
forward_snoops=true
hit_latency=2
is_top_level=true
max_miss_count=0
mshrs=10
prefetch_on_access=false
prefetcher=Null
response_latency=2
sequential_access=false
size=1024
system=system
tags=system.cpu.itb_walker_cache.tags
tgts_per_mshr=12
two_queue=false
write_buffers=8
cpu_side=system.cpu.itb.walker.port
mem_side=system.tol2bus.slave[2]

[system.cpu.itb_walker_cache.tags]
type=LRU
assoc=2
block_size=64
clk_domain=system.cpu_clk_domain
eventq_index=0
hit_latency=2
sequential_access=false
size=1024

[system.cpu.tracer]
type=ExeTracer
eventq_index=0

[system.cpu.workload]
type=LiveProcess
cmd=tests/test-progs/hello/bin/x86/linux/hello
cwd=/home/zzh/gem5-nvmain-hybrid-simulator-v1/gem5-stable
egid=100
env=
errout=cerr
euid=100
eventq_index=0
executable=tests/test-progs/hello/bin/x86/linux/hello
gid=100
input=cin
max_stack_size=67108864
output=cout
pid=100
ppid=99
simpoint=0
system=system
uid=100

[system.cpu_clk_domain]
type=SrcClockDomain
clock=500
eventq_index=0
voltage_domain=system.cpu_voltage_domain

[system.cpu_voltage_domain]
type=VoltageDomain
eventq_index=0
voltage=1.000000

[system.l2]
type=BaseCache
children=tags
addr_ranges=0:18446744073709551615
assoc=8
clk_domain=system.cpu_clk_domain
eventq_index=0
forward_snoops=true
hit_latency=20
is_top_level=false
max_miss_count=0
mshrs=20
prefetch_on_access=false
prefetcher=Null
response_latency=20
sequential_access=false
size=2097152
system=system
tags=system.l2.tags
tgts_per_mshr=12
two_queue=false
write_buffers=8
cpu_side=system.tol2bus.master[0]
mem_side=system.membus.slave[1]

[system.l2.tags]
type=LRU
assoc=8
block_size=64
clk_domain=system.cpu_clk_domain
eventq_index=0
hit_latency=20
sequential_access=false
size=2097152

[system.mem_ctrls]
type=NVMainMemory
NVMainWarmUp=false
atomic_latency=30000
atomic_mode=false
atomic_variance=30000
clk_domain=system.clk_domain
conf_table_reported=true
config=../nvmain/Config/PCM_ISSCC_2012_4GB.config
configparams=
configvalues=
eventq_index=0
in_addr_map=true
null=false
range=0:536870911
port=system.membus.master[2]

[system.membus]
type=CoherentBus
clk_domain=system.clk_domain
eventq_index=0
header_cycles=1
system=system
use_default_range=false
width=8
master=system.cpu.interrupts.pio system.cpu.interrupts.int_slave system.mem_ctrls.port
slave=system.system_port system.l2.mem_side system.cpu.interrupts.int_master

[system.tol2bus]
type=CoherentBus
clk_domain=system.cpu_clk_domain
eventq_index=0
header_cycles=1
system=system
use_default_range=false
width=32
master=system.l2.cpu_side
slave=system.cpu.icache.mem_side system.cpu.dcache.mem_side system.cpu.itb_walker_cache.mem_side system.cpu.dtb_walker_cache.mem_side

[system.voltage_domain]
type=VoltageDomain
eventq_index=0
voltage=1.000000

